@<TRIPOS>MOLECULE
Displayed atoms
 36 38 0 0 0
SMALL
GASTEIGER
****
Schrodinger Suite 2021-3.
@<TRIPOS>ATOM
      1 N         -42.8550    1.2260  -54.8760 N.ar    1  UNL1       -0.2514
      2 C         -43.0650   -2.2940  -53.1030 C.ar    1  UNL1       -0.0617
      3 C         -42.9020   -2.6400  -54.4420 C.ar    1  UNL1       -0.0615
      4 C         -41.7460   -2.2610  -55.1260 C.ar    1  UNL1       -0.0571
      5 C         -40.7390   -1.5130  -54.4870 C.ar    1  UNL1       -0.0277
      6 C         -40.9170   -1.1850  -53.1350 C.ar    1  UNL1       -0.0571
      7 C         -42.0700   -1.5720  -52.4490 C.ar    1  UNL1       -0.0615
      8 C         -39.5170   -1.0520  -55.2700 C.3     1  UNL1        0.0850
      9 C         -38.1990   -1.6670  -54.7750 C.ar    1  UNL1       -0.0277
     10 C         -38.0630   -3.0380  -54.4980 C.ar    1  UNL1       -0.0571
     11 C         -36.8620   -3.5680  -54.0260 C.ar    1  UNL1       -0.0615
     12 C         -35.7600   -2.7390  -53.8450 C.ar    1  UNL1       -0.0617
     13 C         -35.8560   -1.3830  -54.1420 C.ar    1  UNL1       -0.0615
     14 C         -37.0650   -0.8500  -54.6060 C.ar    1  UNL1       -0.0571
     15 C         -40.9060    1.1130  -56.3930 C.3     1  UNL1        0.0670
     16 C         -41.9080    1.9090  -55.6270 C.ar    1  UNL1        0.0606
     17 C         -43.6290    2.0810  -54.2440 C.ar    1  UNL1        0.0650
     18 C         -41.9990    3.2870  -55.5430 C.ar    1  UNL1       -0.0007
     19 O         -38.1862    1.0868  -56.3071 O.2     1  UNL1       -0.2559
     20 S         -39.3900    0.7960  -55.4540 S.O     1  UNL1        0.0399
     21 S         -43.3040    3.7360  -54.5250 S.2     1  UNL1       -0.0836
     22 H         -43.9609   -2.5856  -52.5751 H       1  UNL1        0.0618
     23 H         -43.6704   -3.2020  -54.9519 H       1  UNL1        0.0618
     24 H         -41.6142   -2.5415  -56.1606 H       1  UNL1        0.0621
     25 H         -40.1565   -0.6257  -52.6104 H       1  UNL1        0.0621
     26 H         -42.1888   -1.3097  -51.4081 H       1  UNL1        0.0618
     27 H         -39.6564   -1.4364  -56.2804 H       1  UNL1        0.0535
     28 H         -38.8987   -3.7051  -54.6498 H       1  UNL1        0.0621
     29 H         -36.7881   -4.6218  -53.8012 H       1  UNL1        0.0618
     30 H         -34.8317   -3.1480  -53.4745 H       1  UNL1        0.0618
     31 H         -34.9975   -0.7402  -54.0148 H       1  UNL1        0.0618
     32 H         -37.1198    0.2040  -54.8352 H       1  UNL1        0.0621
     33 H         -40.6573    1.6361  -57.3163 H       1  UNL1        0.0466
     34 H         -41.3506    0.1644  -56.6939 H       1  UNL1        0.0466
     35 H         -44.4131    1.7214  -53.5942 H       1  UNL1        0.0907
     36 H         -41.2984    3.9082  -56.0812 H       1  UNL1        0.0712
@<TRIPOS>BOND
     1     1    16   ar
     2     1    17   ar
     3     2     3   ar
     4     2     7   ar
     5     2    22    1
     6     3     4   ar
     7     3    23    1
     8     4     5   ar
     9     4    24    1
    10     5     6   ar
    11     5     8    1
    12     6     7   ar
    13     6    25    1
    14     7    26    1
    15     8     9    1
    16     8    20    1
    17     8    27    1
    18     9    10   ar
    19     9    14   ar
    20    10    11   ar
    21    10    28    1
    22    11    12   ar
    23    11    29    1
    24    12    13   ar
    25    12    30    1
    26    13    14   ar
    27    13    31    1
    28    14    32    1
    29    15    16    1
    30    15    20    1
    31    15    33    1
    32    15    34    1
    33    16    18   ar
    34    17    21   ar
    35    17    35    1
    36    18    21   ar
    37    18    36    1
    38    19    20    2
